49
Coordinates from ORCA-job 49_Retinal
  O   8.59681282608553     -1.34118665194814      0.76720898642519
  C   -4.53148567601651      0.84000502789802      0.39585299100695
  C   -5.91281786297172      0.14299191241621      0.38740513174580
  C   -5.83778632153287     -1.30736964149770      0.85970394596045
  C   -3.43435971052825     -0.08439380728591     -0.18495367717534
  C   -4.96065458698827     -2.10054542618101     -0.10783831979439
  C   -3.66043067683224     -1.40800281284831     -0.45908187883746
  C   -4.14000234082100      1.23057397823851      1.84183635723527
  C   -4.66431605077113      2.13201026976857     -0.44687032152256
  C   -2.13935065684029      0.56461108207712     -0.41298394815171
  C   -2.68195485344139     -2.30737910693035     -1.17774900782008
  C   -0.90594144990742      0.02889897247948     -0.16474182075571
  C   0.36266768542753      0.69379034846697     -0.38632279019805
  C   0.36036735595220      2.08823569238126     -0.96485774283316
  C   1.52157278010973      0.01556486264179     -0.05711490658568
  C   2.86817440080608      0.47949355248423     -0.19763339735390
  C   3.96796858055807     -0.26637661827810      0.15392782759885
  C   5.34818055935147      0.15073065703788      0.03213397862052
  C   5.63797309271279      1.52659695376695     -0.52725965495526
  C   6.33462552317957     -0.72598542221873      0.43144947300789
  C   7.77618941413680     -0.50722566954372      0.39286729176042
  H   -6.31527550408439      0.15987251403061     -0.64444302479340
  H   -6.61112344186730      0.73215228603336      1.01008023202985
  H   -6.84587092606361     -1.75429462196366      0.92083202628330
  H   -5.40689131396633     -1.35242133441264      1.87735165451389
  H   -5.51765634229402     -2.30396584558226     -1.04758806169291
  H   -4.72276362969245     -3.10050874598509      0.30622005111260
  H   -4.87222075726409      1.94342645492963      2.26312392336077
  H   -4.09861576737850      0.34494171733457      2.49890887121097
  H   -3.14321546373039      1.70496345572364      1.86111122654420
  H   -5.53793279555009      2.71013403357711     -0.09634698628278
  H   -3.78176153072827      2.78782535931821     -0.35614362321219
  H   -4.81547219206656      1.89518608254485     -1.51479144724615
  H   -2.17703519468240      1.60602706087351     -0.75508559610964
  H   -2.17194115528085     -2.99497237486049     -0.47465891049714
  H   -1.90860996387409     -1.74675828309527     -1.72475600953304
  H   -3.22963948081739     -2.94869651143842     -1.89420361541236
  H   -0.84381977126057     -0.97897443450630      0.26330838427521
  H   1.37418341328052      2.49571054371621     -1.08805462483682
  H   -0.20551599714900      2.77854627912079     -0.31259891582202
  H   -0.13522558671498      2.10001460598545     -1.95246652168134
  H   1.40169969678217     -0.99501870073163      0.35762228562610
  H   3.02372188055707      1.48349287102633     -0.60916873388043
  H   3.80280026762497     -1.27125013077384      0.56526043778371
  H   5.15922580602355      2.30355342767254      0.09547049244115
  H   5.22089599145266      1.62337463511278     -1.54576328919794
  H   6.71358157776545      1.74429573823969     -0.57708711176202
  H   6.04051399368512     -1.70694919259113      0.82692929829691
  H   8.12383215572508      0.48355495757646     -0.00414092839653
