72
Coordinates from ORCA-job 72_Vitamin_D3
  O   -6.40570584130140     -0.86389927585677     -1.99037872491555
  C   1.18497554410349      1.33428752910311      0.17144979586469
  C   2.45757777245961      0.45534011922992      0.38846990793599
  C   0.18960226025298      0.24839710805214     -0.35514740389301
  C   1.90275029661764     -0.88374527407432      0.96000990060450
  C   0.40156437044559     -0.95849433455202      0.56727897806913
  C   1.31923710437764      2.46046117191613     -0.89791927596167
  C   3.60635273596341      1.03840916232871      1.24098061475596
  C   -1.19327031065406      0.80732970274306     -0.55608905545255
  C   0.67951411215272      1.92137711556864      1.50516324227039
  C   0.15976674685724      2.46310086110228     -1.92106387002596
  C   -1.20368187453249      2.14523444142737     -1.28613897731210
  C   4.75309567075161      0.01462033106635      1.43885707248351
  C   4.14842321097445      2.37374721755341      0.70349198890023
  C   -2.31544154074201      0.19083113645604     -0.09399268636757
  C   5.43582519480642     -0.48013051191640      0.15474659726332
  C   6.58407131845069     -1.45835649983041      0.44664925771182
  C   -3.66742184755296      0.68288234798597     -0.26717824732054
  C   7.31635948615540     -2.03144165145729     -0.78960682349383
  C   -4.80913162741818      0.13775704369275      0.25286224173178
  C   -6.17745779991855      0.67810150374481     -0.11607771083363
  C   8.02564319506929     -0.94035516562357     -1.60978345397528
  C   6.39056210959145     -2.87978145426038     -1.67830403119870
  C   -4.84558789989625     -1.06600772713312      1.12522611363635
  C   -7.01010635799729     -0.44764845862909     -0.76471612298930
  C   -5.77386720084502     -2.16663005092107      0.63573197511774
  C   -7.15395539799985     -1.62375526964125      0.21942661183211
  C   -4.13899801049049     -1.16499631423779      2.27033937774146
  H   2.85452173958731      0.25609180089227     -0.62699463452544
  H   0.57954549276237     -0.03354210857381     -1.35692242825713
  H   2.47414834682073     -1.74433255371089      0.57288057762677
  H   2.01620536880408     -0.90365356109148      2.05888902362412
  H   0.13615403911961     -1.90789780006042      0.07312148176052
  H   -0.23948795690114     -0.87365247011422      1.46184432159630
  H   2.27126175352341      2.35390772452406     -1.44632696471688
  H   1.36120087519881      3.44257625771482     -0.39304553637378
  H   3.19423570278633      1.23092507034096      2.25154996542406
  H   -0.31289926084750      2.38780250406031      1.38242778726076
  H   0.58842991738727      1.15030395868428      2.28969653855802
  H   1.37178186060363      2.69739735297557      1.87514992356579
  H   0.36228932298692      1.71607578924469     -2.71066432020703
  H   0.11711571942153      3.44168596680343     -2.43107348195849
  H   -1.47387835293632      2.95117047597729     -0.57345789820198
  H   -1.99060250775160      2.15623723360802     -2.06272327007251
  H   4.37010741530253     -0.86021013806346      1.99696767851501
  H   5.51726412304156      0.47779319705327      2.09372906483993
  H   3.38537982374595      3.16832597877746      0.73679911798963
  H   5.00990001753522      2.71129163641361      1.30763129033096
  H   4.48773549552230      2.28434799593048     -0.34389370930938
  H   -2.20748283468825     -0.75642759716678      0.44596378477473
  H   5.81971656957588      0.38353508806176     -0.41905493872806
  H   4.68797598246267     -0.97373182952388     -0.49317537335494
  H   6.18665526394964     -2.30374480041224      1.04277683243738
  H   7.32740247637772     -0.95229576183584      1.09396490385324
  H   -3.79588498727355      1.57378148959516     -0.89711775598635
  H   8.10111459370466     -2.70723315985727     -0.39516933263414
  H   -6.08600804635091      1.52878364431752     -0.81341578661251
  H   -6.70377919098320      1.03270028440700      0.79183477186920
  H   7.29941592008858     -0.25414505058520     -2.08248869702742
  H   8.63233009678779     -1.38634939990960     -2.41805394423101
  H   8.69790673726166     -0.33512934645770     -0.97513811616445
  H   5.61032674077517     -2.26007536756250     -2.15674208730505
  H   6.96149740370591     -3.37209272059350     -2.48571590045160
  H   5.88357233050521     -3.66753999249651     -1.09215883730562
  H   -8.01219744256981     -0.06670657084175     -1.03273873851279
  H   -5.31399638212593     -2.63249044348873     -0.25869885869619
  H   -5.87220805360501     -2.95649616573699      1.39972213220750
  H   -7.74573274574641     -2.42481526808418     -0.25705106159983
  H   -7.71117018427708     -1.28061485797523      1.11193874170757
  H   -4.20244429362771     -2.06068322449583      2.90026129154593
  H   -3.49061031367963     -0.35107555286441      2.61307934108696
  H   -5.43940399566148     -0.79063251171673     -1.85779419052110
