37
Coordinates from ORCA-job 37_Fluorescein
  O   0.66674059051040     -0.79121569874927      2.17287265970661
  C   1.32204058338188     -1.74947188585888      1.80372929030663
  O   1.81347112960779     -2.66722684627805      2.68002048142805
  C   1.67909786745607     -2.06083381390012      0.38915776032920
  C   2.45126577675631     -3.19935897379229      0.08158819993468
  C   2.80716946674448     -3.48485811823040     -1.23982288505279
  C   2.39582893286842     -2.62701937222728     -2.26977718038907
  C   1.62875748561837     -1.49252352749718     -1.97424176527612
  C   1.25862999921728     -1.19184583429222     -0.65036612365400
  C   0.42211277289501      0.02097026537159     -0.40938553618387
  C   -1.00695361033843     -0.12169896670353     -0.27607507533835
  C   -1.68970828838012     -1.36361531035188     -0.31094154848678
  C   -3.06771564607520     -1.44164348224822     -0.16019473898549
  C   -3.81721827027260     -0.25682283030963      0.03281446557679
  O   -5.16174642375546     -0.38987173449649      0.17682976006983
  C   -3.17666308091040      0.99108124897908      0.06671726096570
  C   -1.78657251296651      1.04841184268823     -0.08706286540055
  O   -1.21951669060321      2.28289189384150     -0.04945305230869
  C   0.14277073330757      2.45394663674087     -0.19845690859049
  C   0.63250855233260      3.73045018982690     -0.16033264907399
  C   2.06506377906850      3.99334586301556     -0.30225520493965
  O   2.54652418732905      5.13784105229440     -0.27657327674272
  C   2.91977501745292      2.79739958270893     -0.47774365248908
  C   2.40951050828407      1.53403004884372     -0.51500265116064
  C   0.98923769618049      1.28798095039868     -0.38662727703642
  H   1.52719416316443     -2.36198563739907      3.56602142260198
  H   2.77048032152685     -3.85225947299967      0.89745522148207
  H   3.40724377028028     -4.37196066758375     -1.46557353558854
  H   2.67248151503366     -2.83913580508186     -3.30773414246406
  H   1.30556921464036     -0.82122300656939     -2.77592080653911
  H   -1.10708340454071     -2.27777148124415     -0.45938518620406
  H   -3.59428912231178     -2.39899485236643     -0.18575584529899
  H   -5.55784587492643      0.49126084379084      0.30498624297087
  H   -3.73293130324643      1.92254481761993      0.21188971921323
  H   -0.03977666029522      4.58011259762114     -0.01810674030486
  H   3.99409335752227      2.98491705648670     -0.57400207231276
  H   3.06575346744343      0.66665242795170     -0.64149176476457
