43
Coordinates from ORCA-job 43_LXVIII
  C   -6.25365982330870     -1.43067464439560      4.88253218564949
  C   -5.17928471079171     -0.87866611863745      5.55254695662300
  C   -4.12944899406004     -0.25802769489921      4.82050014233320
  C   -5.32155176296198     -0.79219175585419      2.73201197952744
  C   -6.32758778379441     -1.38784584773939      3.45455323015652
  C   -3.11474172815925      0.40958110471094      2.91954996745175
  C   -2.37155738933769      0.75065517604934      4.09591454161497
  C   -1.14403422978535      1.43960724674816      3.96176716109574
  H   -0.56865254291992      1.71173505137378      4.85131623877395
  C   -0.71828072854592      1.74617452447891      2.67235567506806
  C   -1.47376619194531      1.39630456232400      1.52031126978716
  C   -2.69089664705306      0.72305232769830      1.61825662931508
  H   -7.06129377803280     -1.90800639562506      5.44607630425238
  H   -5.09693642499333     -0.89694203908309      6.64169926181584
  H   -5.31045674311027     -0.72226977542016      1.64139527505056
  H   -7.17794520523020     -1.82462278687118      2.92506870896169
  H   -3.27647268595250      0.45830307643186      0.73176776290526
  N   -4.25063227677196     -0.24176746157290      3.39401146992518
  N   -3.01478227407479      0.33115301712713      5.23998289743534
  C   -0.75115052110891      1.83288715654536      0.25872977828500
  C   0.56648770848747      2.44466835797487      2.26084767569072
  N   0.21752865334622      2.81067205164096      0.84977487057290
  O   1.38871014931938      2.93637299215351      0.03779050127415
  C   1.50379871316868      4.27487835496873     -0.43715421432750
  H   2.42087201589686      4.28916213776941     -1.05000231929584
  H   0.63720008075349      4.56445952057349     -1.06026239145493
  H   1.60267278918537      4.99753049207205      0.39399695055076
  C   0.83155910612681      3.73679490362860      3.05267726496487
  H   0.98659511300413      3.51705656111376      4.12359282942900
  H   1.74291113364685      4.23196933979811      2.67493083831647
  H   -0.01993873730528      4.42748528205020      2.94556990868537
  C   1.78071368436831      1.49519081739201      2.38756585871545
  H   1.99648767201093      1.31389848203914      3.45434699698978
  H   1.58821532354471      0.52253417795406      1.90897463407334
  H   2.66391891188087      1.95132280444011      1.91229709744773
  C   -1.65955746545428      2.58119086394719     -0.73289546157873
  H   -2.12085402772464      3.45198990318906     -0.24047365832570
  H   -1.06823074225916      2.93148146872421     -1.59661164371327
  H   -2.45501365942249      1.91841100313909     -1.11812531097125
  C   -0.08528625650029      0.62988175321187     -0.45056085192834
  H   0.50059756933288      0.01750493839466      0.25199102618610
  H   -0.86358140997801     -0.01251449171194     -0.89758501502429
  H   0.58621711650933      0.98957856214727     -1.24661502230447
