49
Coordinates from ORCA-job 49_LXXV
  N   -3.45086463300398      0.05528598565729     -0.00817250242055
  C   -4.31271091149115     -1.07427198522112      0.08346741632871
  C   -5.49622491039745     -1.12538480502045     -0.68108890334884
  C   -3.99841037982334     -2.14520310236235      0.94513583667319
  C   -6.35045624262740     -2.22905648021904     -0.57788680930793
  H   -5.73811655513420     -0.29481897582247     -1.35084979161147
  C   -4.85062792871550     -3.25233401312590      1.02693254763095
  H   -3.08584863270334     -2.10038721043651      1.54703034039026
  C   -6.03201999194240     -3.30042582577020      0.27083662636538
  H   -7.26658044683776     -2.25714316662961     -1.17741924800951
  H   -4.59597650839570     -4.07734314508475      1.70074438972465
  H   -6.69954046391617     -4.16484733452800      0.34363335365368
  C   -4.02003330561192      1.35965470778823     -0.05120322006555
  C   -3.51302005845710      2.33218917935482     -0.93739956430853
  C   -5.10608662295261      1.68587641974801      0.78664079936586
  C   -4.07835936106035      3.61198668052652     -0.97161951336733
  H   -2.67748454412779      2.07588698385277     -1.59560264798158
  C   -5.67554255518439      2.96302874610997      0.73120295779028
  H   -5.49750626046904      0.93129235949480      1.47533136477115
  C   -5.16374699310803      3.93474097574778     -0.14247115633535
  H   -3.67622473823169      4.35826081551001     -1.66506131329842
  H   -6.51858495455026      3.20415793103715      1.38744523458979
  H   -5.60782329101552      4.93457047326569     -0.17799325390135
  C   -2.05120506905462     -0.11629697802675     -0.05247806617006
  C   -1.18555448891215      0.82991737056825      0.54199165356299
  C   -1.47948760922036     -1.23894730586260     -0.69570218977610
  C   0.19547035591879      0.65594539546751      0.48981872338760
  H   -1.60756200544520      1.69909834086438      1.05399136378271
  C   -0.09792790232846     -1.40845705005490     -0.73571634220601
  H   -2.13257164505736     -1.97249353272461     -1.17656272083059
  C   0.77970411518954     -0.46670460587749     -0.14410042022894
  H   0.84166722014501      1.39526472518890      0.97627109070976
  H   0.31097526984472     -2.27442881101901     -1.26486177722578
  C   2.22630239905384     -0.65686219552807     -0.18936111653682
  C   2.96284510419501     -1.79100076225468     -0.53082573970214
  S   3.35028676173642      0.62282150597270      0.21232034337730
  H   2.51495647404676     -2.74804841742614     -0.81155546796215
  C   4.69878714983086     -0.47589713817784     -0.10611003657509
  N   4.31787676062017     -1.68074384412983     -0.48252171470072
  C   6.09223945515245     -0.05712903547133      0.04266461228082
  C   7.13333150290314     -0.96857874188046     -0.23731233494691
  C   6.46044876411440      1.23900071642816      0.45948021723846
  C   8.45732193257791     -0.54451025926397     -0.08895490994071
  H   6.88642533613265     -1.98273997290573     -0.56289985490258
  C   7.81925304286809      1.55423778281513      0.57313271555072
  H   5.70005464563857      1.99283981279157      0.69322222861451
  H   9.28066687034976     -1.23983577322954     -0.30207205521179
  H   8.12162748142751      2.55963271670131      0.89651040361463
  N   8.81394736802967      0.69084284316243      0.30792845146941
