57
Coordinates from ORCA-job 57_Cypridina_luciferin
  O   -2.17918895582541     -2.94176901129549     -1.27873084455054
  N   -1.06435112626027     -1.22963995916773     -0.12280022558946
  N   -2.75423523003245     -0.07122671393654      0.84758195297662
  N   0.88964857541479      0.50089860793739      0.74294677875868
  N   4.56946139550145     -1.75677181000921     -1.02142328060058
  N   -1.84755696817870      3.40571779220216     -0.37102378338016
  N   -3.77411092056414      2.36883560514188     -1.18365214968636
  N   -1.70482282895312      1.54822139726916     -1.89135153167284
  C   -4.75190826995002     -1.39916763940413      0.03646092323662
  C   -3.27211966540396     -1.11981280381610      0.13354155202862
  C   -1.42419458703534     -0.12469288272060      0.68651302155680
  C   -2.23491704423457     -1.84789081879999     -0.47259295772679
  C   -0.36952905500512      0.74422957029080      1.08574402462701
  C   -5.11216850577703     -2.80112332794543      0.58611493684924
  C   -0.68620824370941      1.99430082661124      1.87117023755135
  C   1.21552525365546     -0.60729573851213     -0.01029071214985
  C   0.24429250536057     -1.48028025787317     -0.47879604891845
  C   -5.26437830624935     -1.21471134942655     -1.40823586150358
  C   2.63681135186297     -0.80728051661039     -0.31404614644672
  C   -0.04953534592609      3.26948129202348      1.28083223630929
  C   3.71726729417577      0.14639226140891     -0.13068746736412
  C   -4.69546169231891     -3.02287836337360      2.04248017790999
  C   4.91450374015997     -0.48578127352838     -0.59131114840191
  C   3.21575229935723     -1.95223943523731     -0.85345922761270
  C   -0.41312442957756      3.49875006326790     -0.20226049966437
  C   3.79754146640346      1.46690050447962      0.36572468159983
  C   6.16569699192821      0.15198921439099     -0.57182247393732
  C   5.03942461217047      2.10453577248031      0.38520737386376
  C   6.21082046767539      1.45748323690790     -0.07700727826193
  C   -2.36727181641760      2.47066344685578     -1.08907009933145
  H   -5.24012755110065     -0.64834985388034      0.68361700139403
  H   -4.64653950117268     -3.58102225726278     -0.05680014552979
  H   -6.20245599932309     -2.95094920621736      0.47423758084961
  H   -0.31751895040140      1.85377414195541      2.90521848516394
  H   -1.78028072326779      2.10801538258409      1.91608826706152
  H   0.41742197430264     -2.34104356722060     -1.12616544616991
  H   -4.76408350650651     -1.91870251284006     -2.09920485195095
  H   -6.35140830827993     -1.39903903096916     -1.46779977741072
  H   -5.06784234509714     -0.19309917482960     -1.77576874150214
  H   -0.40530951169865      4.12786464099909      1.87806291289810
  H   1.04979506402157      3.22672318923581      1.38070786287447
  H   -5.18622990604969     -2.28830209511380      2.70496246951764
  H   -4.97331785056909     -4.03376634429446      2.38744224470483
  H   -3.60500392605695     -2.90363694343219      2.16757384693973
  H   2.76310032031677     -2.90780496855442     -1.11885852174996
  H   0.17645526296607      2.78535912470344     -0.82195383470915
  H   -0.06696865655291      4.50927424958017     -0.49526122033223
  H   5.21808454899047     -2.45045166107478     -1.38032649422963
  H   -3.03535116289035     -3.40343570064008     -1.22433056293844
  H   2.89182342153871      1.95326834748080      0.73179361322648
  H   7.06881388913854     -0.35315782422467     -0.93017114349714
  H   5.11269531593447      3.12751778719424      0.76924907088128
  H   7.16872340775248      1.98733938968192     -0.04557717929959
  H   -4.16558797954728      3.11092079950744     -0.59617390935227
  H   -4.06629835869380      1.47274907822271     -0.77461211350924
  H   -0.74039706223339      1.33291003376544     -1.64743608907945
  H   -2.24525486776703      0.74770728603300     -2.21086948471973
