70
Coordinates from ORCA-job 70_Merocyanine
  S   -5.80088363349812     -3.51463235359716     -1.49435235584138
  O   -3.30454171129470      2.74366315657991      0.23543391367920
  O   6.68433700257698     -0.88363934848001      0.85658274992445
  O   3.86967435507733      2.57485792753155     -0.18683810442176
  O   2.20156363939696     -1.60110676547940      1.42877651473190
  O   -6.06514727014748     -5.04418619354928     -0.89693120584022
  O   -4.52996423589921     -3.52100073925509     -2.22086836561105
  O   -7.06044171269228     -3.06551328920994     -2.11505820919979
  N   -4.60824636140789      1.01192495632269      0.78943962765613
  N   5.27728457793479      0.86309872362344      0.37792454222633
  N   4.43900359801752     -1.20572148068367      1.20031184369534
  C   -5.01914882579682     -0.35644361481282      1.06797334565968
  C   6.43318868542010      1.67002453203330     -0.05197265532698
  C   4.71546882837720     -2.57857538815058      1.65914562333498
  C   -5.14997715858761     -1.18461034704091     -0.22097632347401
  C   6.77971178971932      1.43977088675938     -1.52750335427399
  C   4.75003471899414     -3.58320713938551      0.50180995647985
  C   -5.46016984411312      2.07109995346599      0.45997367694231
  C   5.54161080312317     -0.43835585085801      0.81194130234967
  C   -3.29615232677211      1.42620610914304      0.61853053179217
  C   -5.55686662169623     -2.62895907702386      0.07168091330290
  C   2.86225372695102      0.56210304506544      0.62554252748467
  C   3.99451431854967      1.42621072441211      0.24113694189615
  C   3.08917704478896     -0.80539025129441      1.10764523839400
  C   -4.62217472242498      3.14928462704143      0.12906695030131
  C   7.97876302421004      2.28101451415915     -1.98435686234671
  C   5.03236880086766     -5.01299376569269      0.98184134684673
  C   -6.85087202287507      2.20244560413042      0.42223205883397
  C   -2.13516074422810      0.70148474804508      0.78628161448830
  C   1.59544597908476      1.11717601729476      0.49112928923487
  C   -5.10458528949499      4.39672701674876     -0.23979927121202
  C   8.33631952470203      2.05960672101604     -3.45855190754418
  C   5.06898231846177     -6.03233682629567     -0.16250014757025
  C   -7.35743106412883      3.46243661820254      0.04793798919904
  C   -0.83780667338991      1.23363768423734      0.57015099548577
  C   -6.50788680134281      4.53457666165073     -0.27351593100394
  C   0.33660235704687      0.52274074274042      0.75193056419910
  H   -5.97951616454836     -0.31169485674362      1.60905405480435
  H   -4.28047851908866     -0.80242669936033      1.75487288099233
  H   7.27997955859964      1.39029393893619      0.59226812392644
  H   6.15572104519442      2.72063209939004      0.11959511191618
  H   3.91286490715568     -2.83566963796516      2.36632011824375
  H   5.68525142298848     -2.55425562685481      2.17788666842258
  H   -4.18909128249569     -1.17930640315368     -0.76317876385128
  H   -5.90482878953159     -0.71787020213633     -0.87833103304851
  H   5.89390580832028      1.68717941370012     -2.14174292032800
  H   6.99887692396163      0.36603242274100     -1.67656257155009
  H   5.52982524593113     -3.26951433872430     -0.21686847288693
  H   3.77826177565428     -3.55032665119785     -0.02498777742186
  H   -6.51576790351235     -2.70716583654574      0.61014312042968
  H   -4.78087219044657     -3.18975313333201      0.61836509333588
  H   8.85470702406029      2.04106065127053     -1.35046467165967
  H   7.75874449132858      3.35285166446970     -1.81282528241575
  H   5.99740870135732     -5.03079524920913      1.52508247350653
  H   4.25951803062614     -5.30941733376760      1.71788486034666
  H   -7.51856458143570      1.37132833767251      0.66437122089942
  H   -2.23395385587639     -0.34264569402244      1.09780781279853
  H   1.60319525130462      2.15417660071133      0.12688610741159
  H   -4.42980821748551      5.21818899834354     -0.49138059153896
  H   7.48768184134713      2.32188998844127     -4.11634304379482
  H   9.20135734121269      2.67542012999197     -3.76163096316787
  H   8.59115138450909      1.00130601669325     -3.65020839127899
  H   5.85469084546026     -5.77650908828164     -0.89649750361068
  H   5.27425674039772     -7.05129496194380      0.21038555601371
  H   4.10482888280443     -6.05768085423691     -0.70233574847245
  H   -8.44137507703134      3.60547695638248      0.00453103518164
  H   -0.77133877498809      2.27706982397457      0.23384675666137
  H   -6.94085862249584      5.49736897255342     -0.56051745511396
  H   0.31353734166750     -0.51525559106003      1.09733450924217
  H   -6.96595865845527     -5.28811239613103     -1.19925567846554
