36
Coordinates from ORCA-job 36_XXXVII
  C   -0.77077620522102     -0.81093481240563      6.91043518069404
  C   0.27436245100600     -0.11494608547596      6.21546260365333
  C   0.95319419912553      0.97483113733992      6.76751466598884
  C   0.59732063555634      1.38315475975622      8.06225165177696
  C   -0.43811966086002      0.70528781826259      8.76731813766753
  C   -1.11609346069155     -0.37787512947351      8.21085207674943
  C   -1.23852802740448     -1.84109015070026      6.03394997066042
  C   -0.49429357786055     -1.76763686047727      4.85658424587424
  H   1.74137609867177      1.52212213092386      6.24289311031455
  H   -0.73725216503805      1.06740622318260      9.75611334447524
  H   -1.91728541533257     -0.87528381792150      8.76716309285282
  H   -2.00807933095541     -2.58170997021325      6.24956911934959
  H   1.01405659231319     -0.38419168562598      4.23661571931506
  C   -0.55775212544630     -2.58989554398093      3.64976156946427
  C   0.52280842042454     -2.65592573099111      2.74121616116161
  C   -1.71272882124822     -3.35782436690665      3.36118230383687
  C   0.44638502182076     -3.44078120649434      1.58652681451861
  H   1.45392172012895     -2.11996564011395      2.95553636833833
  C   -1.78395293472473     -4.14567542910853      2.21556696850104
  H   -2.56870946117261     -3.31340941425310      4.04130780248584
  C   -0.71097876957524     -4.19062772947178      1.30052222180166
  H   1.31706113104473     -3.50045801790803      0.92518166694595
  H   -2.67187117618686     -4.74255480135762      1.98897980409213
  N   0.42586290619948     -0.73085328247981      4.98807281499404
  C   1.32770089357246      2.54662453908486      8.65181850141382
  N   1.18272839757534      2.70183183572773     10.02938976108853
  H   1.81058404257043      3.37375540682850     10.46861251429576
  H   1.05926390131430      1.84962584031096     10.57546606750550
  C   -0.83652417267550     -5.04547714653102      0.08158163485737
  N   0.09856863836191     -4.79043598460080     -0.91993667434933
  H   -0.07436591439919     -5.24598741373887     -1.81517757079223
  H   0.41611308524591     -3.82618294509740     -1.01657395234486
  N   1.98664047726830      3.33537257661946      7.86670764964932
  H   2.46986507473568      4.06933819654680      8.40725543684714
  N   -1.74034417988683     -5.96877142716222      0.06386194720124
  H   -1.74073228825647     -6.46687587209397     -0.83962673088476
