55
Coordinates from ORCA-job 55_XXIX
  C   7.26647226423610     -0.04999429602613     -0.00658143412722
  C   7.12933165766700      1.32726329481205      0.23000850491750
  C   5.79029542709819      1.75030534950642      0.27235923229016
  C   4.85779501359500      0.72196550539031      0.07160404364589
  S   5.68192884774694     -0.79382436079658     -0.17228450752311
  H   7.98307861435872      1.99345807885524      0.36487732695831
  H   5.49838738989623      2.78865505825650      0.44297691971545
  C   -0.91202234610286      1.04266175192658     -0.05640507875147
  C   -1.80466591869134     -0.04504778656359     -0.00202363376904
  N   -1.69443126772465      2.19540950321587     -0.13788762504653
  C   -3.14705766546273      0.43825748340115     -0.02290966241960
  C   -3.10486217226823      1.88759238731488     -0.11626970623777
  C   -1.84951791046450     -1.49472751197109      0.09246563072021
  O   -0.99226910508067     -2.37660866560770      0.14083800407080
  N   -3.26191279331421     -1.80111765405486      0.11237756732794
  C   -4.04028078556501     -0.64783509332582      0.03216109522914
  O   -3.96455726207400      2.76744079590776     -0.16256906626472
  C   -1.29941007378575      3.58010349763573     -0.34578700248665
  H   -0.89418501095921      4.03626318424783      0.57458422871286
  H   -0.55926703878585      3.66097300275822     -1.15772561717826
  H   -2.22155144177181      4.11629438892462     -0.61886252839059
  C   -3.66237991398579     -3.18464602816532      0.31800747193416
  H   -4.06247974365120     -3.63949778893646     -0.60526553961606
  H   -2.74451881791133     -3.72436723586655      0.59829899851074
  H   -4.40927582898943     -3.26215733643006      1.12402391720183
  C   -8.31530361780116     -0.38903788910924     -0.05135202385276
  C   -7.53563311757982      0.74623994668777      0.21888333814634
  C   -7.71035918669764     -1.62584227470491     -0.31734923115755
  C   -6.14533688967326      0.63641554175719      0.23766860644594
  H   -8.01313898804300      1.71135454431977      0.40732243975689
  C   -6.31761658138811     -1.72928365032606     -0.28992396810432
  H   -8.32388873298879     -2.49988827888042     -0.55076368896105
  C   -5.50064453005992     -0.60699671950983      0.00107270169241
  H   -5.54548677161702      1.53540299319443      0.41047927441433
  H   -5.87584092934296     -2.69578835614934     -0.52903629615682
  C   0.54441298008874      1.00662912055629     -0.01679389489846
  C   1.35942250012055      2.13831863450703      0.25189188773116
  C   1.20338553006451     -0.23732392164954     -0.22053663583536
  C   2.74665283293270      2.04006353207377      0.28530878631188
  H   0.91205853794359      3.10717064437226      0.46788600531807
  C   2.58958672628837     -0.32649236282936     -0.19357569330360
  H   0.61151910674139     -1.14412057029651     -0.37795586711270
  C   3.40345964927087      0.80796638629676      0.05005858352808
  H   3.33117681152107      2.93704344913971      0.50690213435553
  H   3.05812708939375     -1.30250412578080     -0.36278584443160
  Br  -10.21112392596177     -0.24798330037638     -0.07513068640650
  C   8.41683033338288     -0.89065276662916     -0.12668511363597
  C   9.75250276221275     -0.55009119323623     -0.03651121613853
  C   10.20117888299303      0.78327675563224      0.20644030094242
  C   10.82481894208361     -1.56888202296109     -0.18974932459149
  N   10.52374074057724      1.89209730391068      0.40703901951737
  O   12.01623128429683     -1.33200757105755     -0.12056928381978
  O   10.33125070853635     -2.81833438848129     -0.42047132725738
  H   11.11684758875767     -3.39706327383515     -0.50337255014162
  H   8.22655814593787     -1.95241171104407     -0.31636397177890
